omf/static/testFiles/lehigh4mgs/circuit_plus_mgAll.clean.dss


!!!master.dss
clear
new object=circuit.lehigh


! redirect vsource.dss
! makebuslist
! redirect busvoltagebases.dss ! set voltage bases
! buscoords buscoords.dss
! giscoords giscoords.dss


!!!loadshape.dss
new object=loadshape.default npts=24 interval=1 mult=[0.677,0.6256,0.6087,0.5833,0.58028,0.6025,0.657,0.7477,0.832,0.88,0.94,0.989,0.985,0.98,0.9898,0.999,1,0.958,0.936,0.913,0.876,0.876,0.828,0.756]
new object=loadshape.solar_634_shape npts=8760 interval=1 useactual=yes mult=[0,0,0,0,0,0,0,0,15.5733,36.2542,49.9305,57.4574,60.416,58.1799,51.5283,40.0098,21.6754,1.44788,0,0,0,0,0,0,0,0,0,0,0,0,0,0,5.75327,19.2667,33.0351,40.7623,47.2808,55.6142,33.8145,36.7279,18.6433,0.659714,0,0,0,0,0,0,0,0,0,0,0,0,0,0,7.30225,32.0025,45.4874,53.5382,56.7895,54.7444,27.4717,30.9045,15.0368,0.598659,0,0,0,0,0,0,0,0,0,0,0,0,0,0,10.8567,32.0308,46.361,40.0796,32.6846,21.3888,50.1191,23.2377,12.6357,0.485271,0,0,0,0,0,0,0,0,0,0,0,0,0,0,7.0951,24.1057,30.4676,40.1468,38.9154,32.2128,32.7443,24.993,12.0975,0.973515,0,0,0,0,0,0,0,0,0,0,0,0,0,0,5.84327,7.7005,20.5146,12.4246,26.1311,27.7558,22.9921,12.3605,8.40026,1.46354,0,0,0,0,0,0,0,0,0,0,0,0,0,0,16.9964,39.7278,55.6594,64.9912,68.2937,66.1845,59.0698,46.5035,26.4591,2.74412,0,0,0,0,0,0,0,0,0,0,0,0,0,0,4.7296,28.0162,38.1625,41.0161,26.5016,26.9831,29.8231,18.0793,12.0321,0.624033,0,0,0,0,0,0,0,0,0,0,0,0,0,0,0.416682,0.831779,2.94473,11.0579,14.4162,10.2952,4.40252,2.20116,5.0329,0.102486,0,0,0,0,0,0,0,0,0,0,0,0,0,0,0.279705,7.32941,8.06782,8.31006,9.55158,15.1673,22.4666,16.7065,6.36581,0.269793,0,0,0,0,0,0,0,0,0,0,0,0,0,0,15.1338,37.2203,52.7351,62.002,65.5502,63.7738,56.9388,45.1922,26.1204,3.17765,0,0,0,0,0,0,0,0,0,0,0,0,0,0,15.737,37.4435,52.3155,61.3029,56.8353,53.642,56.5017,44.5503,25.8783,3.50374,0,0,0,0,0,0,0,0,0,0,0,0,0,0,6.77198,22.0301,41.7438,44.0783,48.2125,52.7004,44.6407,36.2992,23.4244,3.28509,0,0,0,0,0,0,0,0,0,0,0,0,0,0,7.02433,28.8306,30.1116,57.2766,61.3195,60.0284,53.7033,42.146,23.0444,3.44665,0,0,0,0,0,0,0,0,0,0,0,0,0,0,8.15465,20.629,33.7449,36.4213,39.5797,38.082,30.5613,19.6927,17.998,3.06644,0,0,0,0,0,0,0,0,0,0,0,0,0,0,6.27839,29.7758,51.7549,60.3954,63.9633,62.4831,55.9762,33.1701,26.6758,4.99286,0,0,0,0,0,0,0,0,0,0,0,0,0,0,0.828013,19.6473,18.4159,18.8613,27.462,44.2585,22.3855,16.3172,2.12544,0.0335011,0,0,0,0,0,0,0,0,0,0,0,0,0,0,10.7225,11.9125,6.30019,7.79585,62.033,60.6402,29.9663,43.0438,25.3849,5.05054,0,0,0,0,0,0,0,0,0,0,0,0,0,0,0,5.47951,20.6315,54.8072,59.3406,22.304,14.6858,17.0471,6.38008,5.26998,0,0,0,0,0,0,0,0,0,0,0,0,0,0,16.6574,39.4046,54.5626,63.2564,66.4167,64.9672,58.9941,47.5272,28.7261,6.45422,0,0,0,0,0,0,0,0,0,0,0,0,0,0,4.86995,13.0307,34.0932,60.2245,64.431,63.6604,57.7773,46.3687,28.4179,6.59813,0,0,0,0,0,0,0,0,0,0,0,0,0,0,16.2387,37.7867,52.9191,62.5414,66.5824,65.1733,58.7142,46.8681,28.3967,6.69368,0,0,0,0,0,0,0,0,0,0,0,0,0,0,16.0562,38.2805,54.342,64.2928,68.461,66.9997,60.5855,48.8256,30.402,7.66165,0,0,0,0,0,0,0,0,0,0,0,0,0,0,4.39558,15.1148,50.4204,41.8467,63.3344,52.3222,55.2033,38.0628,23.692,5.07393,0,0,0,0,0,0,0,0,0,0,0,0,0,0,4.56368,27.0941,29.4401,44.5936,63.7215,63.0431,47.3391,44.2817,25.7863,5.85239,0,0,0,0,0,0,0,0,0,0,0,0,0,0,9.0903,18.1453,29.0155,22.3762,11.8834,3.54953,10.2813,19.7034,8.04879,2.65115,0,0,0,0,0,0,0,0,0,0,0,0,0,0,13.5154,24.373,16.7175,49.4171,67.5335,67.5192,61.8653,50.2646,31.3822,8.70058,0,0,0,0,0,0,0,0,0,0,0,0,0,0,18.8871,43.0069,59.3707,69.0559,72.5842,70.8913,63.7948,51.8677,33.246,9.6733,0,0,0,0,0,0,0,0,0,0,0,0,0,0,9.61224,40.2675,44.6015,49.8431,50.1078,52.452,44.9851,32.5437,19.6378,8.37092,0,0,0,0,0,0,0,0,0,0,0,0,0,0,1.906,9.19814,11.3083,31.7489,33.8726,17.8799,14.1141,7.86701,16.6738,3.85917,0,0,0,0,0,0,0,0,0,0,0,0,0,0,3.0264,19.6313,39.0942,36.7612,31.4415,38.3094,35.5108,29.9193,9.21182,0.721364,0,0,0,0,0,0,0,0,0,0,0,0,0,0,15.3189,35.7927,11.1755,16.4546,24.595,33.3358,25.8908,45.557,29.1777,8.71743,0,0,0,0,0,0,0,0,0,0,0,0,0,0,4.72247,13.6486,15.359,21.055,46.2422,40.6091,37.8208,19.6802,12.2041,8.43871,0,0,0,0,0,0,0,0,0,0,0,0,0,0,16.2556,36.651,7.24476,12.4668,12.9342,14.3159,15.8627,11.3285,3.04721,2.59247,0,0,0,0,0,0,0,0,0,0,0,0,0,0,16.2724,9.39974,24.1091,38.1502,64.4266,63.6745,57.6354,45.8834,28.847,8.92497,0,0,0,0,0,0,0,0,0,0,0,0,0,0,4.38091,1.65543,50.0673,59.5126,63.7159,31.2601,57.8741,47.2064,30.8353,9.88878,0,0,0,0,0,0,0,0,0,0,0,0,0,0,6.49446,25.1447,34.5898,33.9471,12.5173,12.2045,19.6735,0.34968,4.48677,0.821669,0,0,0,0,0,0,0,0,0,0,0,0,0,0,16.9553,38.7003,53.9416,63.5019,67.9149,66.9998,60.7169,49.7698,32.3476,10.7138,0,0,0,0,0,0,0,0,0,0,0,0,0,0,1.34361,8.8439,35.8886,42.7282,52.5597,33.3203,43.5929,48.9083,32.5147,11.1196,0,0,0,0,0,0,0,0,0,0,0,0,0,0,18.723,19.1967,25.2622,63.413,67.4272,41.8568,60.0354,49.5277,33.2369,11.5607,0,0,0,0,0,0,0,0,0,0,0,0,0,0.168695,18.2391,39.2135,53.4868,62.3642,65.7104,65.1965,58.4844,47.036,30.1284,10.0194,0,0,0,0,0,0,0,0,0,0,0,0,0,0.163343,6.26689,13.7854,18.3277,28.1738,64.5727,63.5865,57.7922,47.3476,17.0069,6.36323,0,0,0,0,0,0,0,0,0,0,0,0,0,0,0,0.763984,3.55885,5.43095,11.8406,14.3218,9.25364,7.89021,6.15865,2.49831,0,0,0,0,0,0,0,0,0,0,0,0,0,0.189113,0.214883,10.5433,20.2115,51.4763,73.6222,73.2063,66.6999,54.9827,37.0152,13.5259,0,0,0,0,0,0,0,0,0,0,0,0,0,0.635728,21.3469,43.3871,57.887,67.3961,71.8264,70.7968,64.6784,40.4983,35.1556,12.6947,0,0,0,0,0,0,0,0,0,0,0,0,0,0.735042,22.0081,45.0164,60.3829,69.9666,74.0743,72.6247,66.0386,54.117,36.8132,13.9222,0,0,0,0,0,0,0,0,0,0,0,0,0,0.848232,21.836,43.4299,57.6723,66.4613,70.165,68.8959,62.9654,52.0407,35.2061,13.3541,0,0,0,0,0,0,0,0,0,0,0,0,0,0.745548,20.4886,41.8272,56.1136,65.2637,69.159,67.7684,62.1981,50.6442,33.5824,11.3236,0,0,0,0,0,0,0,0,0,0,0,0,0,0.599848,18.4115,38.2866,32.0031,35.8658,45.9142,64.2761,51.4851,37.505,28.042,9.06988,0,0,0,0,0,0,0,0,0,0,0,0,0,0.806802,19.933,40.7027,54.8833,63.6263,67.005,67.19,60.7589,37.9124,33.1092,12.6178,0,0,0,0,0,0,0,0,0,0,0,0,0,1.04369,20.9646,41.475,56.0093,64.7916,50.4979,40.9869,34.8774,50.0729,17.4289,12.6939,0,0,0,0,0,0,0,0,0,0,0,0,0,0,0.403996,1.7371,4.04194,19.1739,32.7853,21.9664,19.9694,48.4565,14.3074,12.482,0,0,0,0,0,0,0,0,0,0,0,0,0,1.27859,22.016,43.423,57.6409,66.3998,69.5656,68.0021,62.3299,51.6661,35.6787,9.47507,0,0,0,0,0,0,0,0,0,0,0,0,0,0,0,5.60341,17.6759,26.5777,11.8943,7.42476,10.224,11.792,5.10327,4.47567,0,0,0,0,0,0,0,0,0,0,0,0,0,1.41815,2.02374,6.28414,7.96831,34.0579,44.1122,49.5228,22.9019,20.8066,33.0182,7.87276,0,0,0,0,0,0,0,0,0,0,0,0,0,1.75911,21.3757,35.1893,55.2453,63.8309,67.0288,65.9441,60.7986,13.0409,34.3359,13.6657,0,0,0,0,0,0,0,0,0,0,0,0,0,0,1.77774,8.03928,10.3255,14.2306,15.4938,9.85845,19.6765,12.3274,11.6269,5.67656,0,0,0,0,0,0,0,0,0,0,0,0,0,2.56234,18.8788,36.297,64.1707,73.5829,67.1697,60.0806,51.9194,41.2621,24.7294,6.32239,0,0,0,0,0,0,0,0,0,0,0,0,0,3.85798,27.6347,49.0613,62.407,70.0465,73.3228,71.987,65.8335,55.2277,39.2542,16.59,0,0,0,0,0,0,0,0,0,0,0,0,0,0.540974,5.72116,14.7686,22.2784,17.2158,20.5546,53.4828,30.1433,44.9282,35.6079,14.7355,0.0529278,0,0,0,0,0,0,0,0,0,0,0,0,4.37953,26.6528,48.1516,62.1588,70.1168,73.6802,72.2613,64.1269,51.9465,35.5722,13.2062,0.0231931,0,0,0,0,0,0,0,0,0,0,0,0,4.54981,28.7592,50.3234,64.5037,72.7063,75.7187,74.2815,67.1941,55.3718,38.5316,16.4651,0.139753,0,0,0,0,0,0,0,0,0,0,0,0,4.9764,27.9671,49.4516,63.6834,72.1957,75.6071,73.6537,67.4861,56.5297,40.0098,17.4856,0.316179,0,0,0,0,0,0,0,0,0,0,0,0,2.99964,25.5092,45.7786,34.7177,34.7004,55.2751,65.6239,56.4742,49.5028,37.9056,16.4984,0.247591,0,0,0,0,0,0,0,0,0,0,0,0,1.94842,16.6552,17.2499,15.084,16.1573,10.6212,25.0124,8.25,12.6123,5.41608,0.709867,0,0,0,0,0,0,0,0,0,0,0,0,0,5.00554,20.9362,48.0317,64.0454,67.901,75.5642,64.4143,59.5469,46.7557,32.7633,7.824,0,0,0,0,0,0,0,0,0,0,0,0,0,4.08218,30.0297,51.5087,66.1377,75.2798,79.0089,77.5464,70.8301,59.3691,42.5,17.639,0.200214,0,0,0,0,0,0,0,0,0,0,0,0,4.618,29.9536,50.2176,62.922,70.4419,72.9579,71.9745,66.1088,54.5487,39.7317,17.7758,0.438488,0,0,0,0,0,0,0,0,0,0,0,0,4.37794,25.0019,34.5892,46.8352,48.135,49.4272,46.9434,36.7949,36.942,32.2164,12.9094,0.286048,0,0,0,0,0,0,0,0,0,0,0,0,3.55191,14.6459,25.8934,58.0477,55.0608,45.9187,34.6074,36.6019,25.4757,16.8988,8.07654,0,0,0,0,0,0,0,0,0,0,0,0,0,2.26202,19.5256,40.4747,36.3301,75.9324,78.081,79.0398,72.1364,60.2731,42.6301,19.1246,0.629187,0,0,0,0,0,0,0,0,0,0,0,0,6.17828,32.1833,52.8521,66.3715,73.8725,76.8183,75.1301,67.2007,56.8193,40.8287,18.6229,0.62324,0,0,0,0,0,0,0,0,0,0,0,0,8.53267,32.7306,53.6285,67.3979,75.5559,78.5865,76.9594,69.9172,57.8513,41.0412,18.7372,0.622645,0,0,0,0,0,0,0,0,0,0,0,0,7.71358,32.9742,52.5952,65.4614,73.7145,77.1838,76.3653,70.4404,59.0886,42.7514,19.8783,0.738016,0,0,0,0,0,0,0,0,0,0,0,0,7.76136,30.8906,49.457,61.6272,68.8287,72.0365,70.7474,57.9779,20.4123,18.2466,4.39757,0.113785,0,0,0,0,0,0,0,0,0,0,0,0,1.4122,16.9958,25.8232,20.8151,33.2676,37.3214,53.9094,63.8412,41.6833,33.1615,16.0072,0.598857,0,0,0,0,0,0,0,0,0,0,0,0,0.843078,4.14264,9.34681,43.5697,46.0587,45.4099,43.9654,42.2612,40.7796,30.4252,0.930498,0,0,0,0,0,0,0,0,0,0,0,0,0,8.11817,9.77777,6.9492,17.3078,34.6713,5.03448,4.66994,17.378,8.25456,21.4956,10.2276,0.770327,0,0,0,0,0,0,0,0,0,0,0,0,7.86582,14.6338,18.3808,36.0765,54.2034,60.5185,60.6616,61.6682,55.8791,41.7178,19.4414,0.827022,0,0,0,0,0,0,0,0,0,0,0,0,10.3953,33.8708,54.1709,68.3278,77.3973,81.0247,79.4462,72.6193,60.569,43.7558,20.5068,1.03972,0,0,0,0,0,0,0,0,0,0,0,0,11.3323,36.021,56.1469,69.7368,77.8851,80.6792,78.6735,71.5475,59.7733,43.2424,20.422,0.996708,0,0,0,0,0,0,0,0,0,0,0,0,10.8078,33.1768,51.7364,64.3505,71.1231,73.2644,71.4311,62.5345,54.9955,33.0212,15.576,0.871822,0,0,0,0,0,0,0,0,0,0,0,0,6.38186,22.1502,49.4754,58.0951,71.5814,74.3241,72.1432,65.6527,55.4295,40.6333,19.3644,0.988382,0,0,0,0,0,0,0,0,0,0,0,0,6.52677,18.5039,20.6303,28.5096,33.8282,33.9454,17.6057,25.5715,18.5307,7.77424,14.0197,0.890257,0,0,0,0,0,0,0,0,0,0,0,0,3.95293,2.11453,11.8388,14.1779,19.8218,31.7206,37.6394,30.4226,19.3894,13.3554,4.07524,0,0,0,0,0,0,0,0,0,0,0,0,0,8.97671,11.8435,39.9537,62.9849,69.9355,34.0732,30.8527,30.6478,27.6686,18.5979,2.67989,1.11426,0,0,0,0,0,0,0,0,0,0,0,0,11.612,34.3928,52.2374,64.0171,71.1256,73.9015,71.8769,65.9258,55.1638,40.1855,19.6194,1.56325,0,0,0,0,0,0,0,0,0,0,0,0,4.98433,33.2617,51.7644,52.0627,64.7618,56.2698,72.9605,29.522,43.4063,20.7168,11.7837,1.66633,0,0,0,0,0,0,0,0,0,0,0,0,0.391904,1.65206,3.14137,23.2036,9.70838,5.67438,40.8238,9.59361,11.9234,9.32084,7.36311,0.921578,0,0,0,0,0,0,0,0,0,0,0,0,6.74046,21.8887,43.9753,57.8649,74.3745,77.5715,75.2058,68.8442,57.7403,42.2314,20.8886,2.01264,0,0,0,0,0,0,0,0,0,0,0,0,0.696784,0.691431,9.68321,9.54504,23.3757,16.3257,33.0773,14.0245,11.0171,9.27644,4.54862,0.122507,0,0,0,0,0,0,0,0,0,0,0,0,12.3248,18.6724,50.7189,63.6073,72.167,75.9171,48.7269,47.1987,58.2107,34.7819,20.9539,2.00075,0,0,0,0,0,0,0,0,0,0,0,0,15.1948,39.2546,57.7936,70.8654,78.0524,79.9378,77.4472,70.4669,59.0147,43.2097,21.5698,2.09412,0,0,0,0,0,0,0,0,0,0,0,0.0608571,14.9476,37.6223,54.9341,67.0762,74.1736,76.2763,74.6944,67.8084,56.4175,41.111,20.4117,2.12683,0,0,0,0,0,0,0,0,0,0,0,0.0116957,14.2939,36.0397,53.9971,67.269,75.1436,78.348,76.6317,69.8467,58.6059,42.5896,21.212,2.33477,0,0,0,0,0,0,0,0,0,0,0,0.157396,14.6582,27.776,47.4237,54.7628,72.4304,59.8994,58.9921,54.8625,41.982,29.9397,15.2236,1.99322,0,0,0,0,0,0,0,0,0,0,0,0.151845,14.6951,36.6288,54.0391,65.864,73.1343,76.2297,75.0526,68.8244,37.5657,42.0697,20.9077,2.42853,0,0,0,0,0,0,0,0,0,0,0,0.208143,14.8751,36.1305,52.8889,65.4364,73.3906,77.4792,77.3555,71.3157,60.2727,44.4691,22.3698,2.63489,0,0,0,0,0,0,0,0,0,0,0,0.259881,16.9835,40.1048,57.6427,70.096,77.5281,80.1166,77.5588,70.4994,58.915,42.6753,21.4461,2.70487,0,0,0,0,0,0,0,0,0,0,0,0.260476,11.3176,25.7116,42.8586,68.4376,75.7361,77.9,75.567,68.6922,58.1052,42.5843,21.7555,2.78614,0,0,0,0,0,0,0,0,0,0,0,0.387741,15.8575,37.0685,53.6212,65.3609,71.7992,73.4525,71.3112,55.8095,53.8918,39.101,19.9149,2.87039,0,0,0,0,0,0,0,0,0,0,0,0.35424,5.20695,25.6085,16.9353,40.1014,51.4139,51.3277,61.9895,26.162,15.784,26.1939,10.4119,2.71676,0,0,0,0,0,0,0,0,0,0,0,0.477341,15.5921,35.8535,33.446,43.5447,48.8351,30.6315,34.4169,18.4347,13.627,3.13741,2.38294,0.0592712,0,0,0,0,0,0,0,0,0,0,0,0.508464,2.50346,3.05078,9.0231,18.0759,18.0666,20.4938,28.3279,11.6614,14.2334,9.28694,4.15672,0.434523,0,0,0,0,0,0,0,0,0,0,0,0.735439,2.60179,8.16714,16.0498,22.1434,19.2713,19.5165,31.2274,33.4087,35.598,17.0715,4.18447,3.251,0,0,0,0,0,0,0,0,0,0,0,0.892438,10.9981,16.4467,22.8763,23.5564,35.9852,43.5742,45.7843,52.9934,55.056,39.4709,19.9155,3.37489,0,0,0,0,0,0,0,0,0,0,0,1.23914,17.7802,39.3517,56.0103,67.9644,75.3297,77.7034,76.1766,69.8223,58.6965,43.0973,22.2473,3.36656,0,0,0,0,0,0,0,0,0,0,0,1.36958,19.4503,41.7739,58.1425,69.2278,75.3904,77.0694,75.0356,68.0822,56.5497,41.0137,21.2104,3.37608,0,0,0,0,0,0,0,0,0,0,0,1.49605,19.3799,41.113,56.6395,68.0156,74.0591,75.1585,72.1317,66.4472,56.5937,41.7842,21.8836,3.50215,0,0,0,0,0,0,0,0,0,0,0,1.75752,18.1917,38.3897,53.5697,56.6004,70.7605,62.0904,70.6818,54.1273,35.3116,39.8931,20.3964,3.67085,0,0,0,0,0,0,0,0,0,0,0,1.33271,10.5499,28.6094,28.0692,34.6675,48.4807,74.653,71.9031,36.4345,30.4069,26.8255,11.3864,2.54886,0,0,0,0,0,0,0,0,0,0,0,2.09154,12.6283,37.526,46.4869,55.7048,9.3028,16.3997,18.6651,4.46655,17.3383,8.78284,11.6108,3.60087,0,0,0,0,0,0,0,0,0,0,0,2.04971,18.7688,15.2977,17.4908,66.4573,73.4586,75.8917,36.8931,68.0263,57.2825,42.2027,22.1591,3.64092,0,0,0,0,0,0,0,0,0,0,0,2.18966,19.7542,40.597,55.4731,66.2525,72.4657,74.3869,72.5906,66.4739,56.2167,41.3608,21.6927,3.78959,0,0,0,0,0,0,0,0,0,0,0,1.71569,10.9765,26.7462,52.927,54.6397,57.0716,72.3987,62.3101,64.1023,54.0306,39.6935,20.8974,3.89901,0,0,0,0,0,0,0,0,0,0,0,2.50584,18.8768,38.5616,42.6689,48.4636,69.3108,71.5035,69.7398,63.8729,54.1356,39.6572,21.0712,3.99317,0,0,0,0,0,0,0,0,0,0,0,2.64897,19.0611,38.715,53.7923,64.6262,70.772,73.2798,71.382,64.8738,43.8831,37.8606,18.9026,3.89109,0,0,0,0,0,0,0,0,0,0,0,2.847,18.2236,29.6568,41.9824,49.0498,51.6228,46.113,16.2528,7.62121,3.4187,22.1238,7.9134,1.72541,0,0,0,0,0,0,0,0,0,0,0,2.91202,18.7582,37.8551,52.2863,62.3721,54.5249,68.4479,55.0826,39.388,52.5258,38.9336,20.807,4.13689,0,0,0,0,0,0,0,0,0,0,0,2.73024,15.7192,33.2032,47.812,52.2405,53.5923,60.775,69.3441,63.043,46.7132,35.3084,15.1942,3.6096,0,0,0,0,0,0,0,0,0,0,0,3.13027,18.4377,32.1008,37.5504,54.8451,63.6452,72.3327,70.4836,64.6334,54.2962,37.4513,21.6677,4.45367,0,0,0,0,0,0,0,0,0,0,0,3.30373,18.0406,25.7746,45.7837,52.4576,49.2433,56.601,69.6117,52.8883,54.0036,40.2158,21.8826,4.49173,0,0,0,0,0,0,0,0,0,0,0,3.38659,19.722,21.5858,53.2692,39.0899,49.0094,43.2315,41.268,2.1972,8.86808,0.435911,21.5811,4.49133,0,0,0,0,0,0,0,0,0,0,0,3.71367,7.73995,29.8192,42.0843,29.0169,71.8123,74.2952,73.2675,67.6453,57.7724,22.2265,23.5814,4.89988,0,0,0,0,0,0,0,0,0,0,0,3.83558,22.4499,43.9459,60.4527,72.3232,79.2811,81.6343,79.1072,72.3543,60.8713,45.4568,24.6685,4.95182,0,0,0,0,0,0,0,0,0,0,0,3.96978,23.6377,44.9401,60.2237,71.2872,77.1168,78.8814,77.3487,69.8956,58.7691,43.1984,23.3023,5.22023,0,0,0,0,0,0,0,0,0,0,0,4.34266,22.2523,42.3896,57.9982,69.6108,76.1332,77.7715,75.7141,68.6822,58.1304,43.0452,23.5114,5.09673,0,0,0,0,0,0,0,0,0,0,0,4.06493,22.1754,41.6151,55.6346,64.9406,70.1244,72.672,71.7269,66.4254,56.8855,42.6267,23.6064,5.29952,0,0,0,0,0,0,0,0,0,0,0,4.28874,21.9531,41.0817,55.7504,66.5816,72.6243,74.6817,72.6169,66.8833,56.3631,42.1916,23.4163,5.37366,0,0,0,0,0,0,0,0,0,0,0,3.85342,16.1638,4.8539,33.107,36.0545,28.8908,58.469,52.0465,24.1759,35.1286,22.2396,12.6051,3.76759,0,0,0,0,0,0,0,0,0,0,0,4.30202,20.0693,40.1092,53.9572,63.7693,69.0309,70.5272,68.7326,62.9321,53.224,39.632,21.9204,5.41211,0,0,0,0,0,0,0,0,0,0,0,4.64575,21.0252,39.2363,53.1054,63.7076,69.6056,41.5237,69.6821,64.0878,54.1943,40.2509,22.2568,5.33223,0,0,0,0,0,0,0,0,0,0,0,4.4269,20.692,39.0966,53.2039,63.5548,49.6601,43.9836,47.3971,21.2805,8.14434,32.3175,9.03361,5.55226,0,0,0,0,0,0,0,0,0,0,0,4.66617,23.177,43.1812,58.0338,68.4622,74.56,76.2275,74.0866,67.6881,57.184,42.6975,23.8203,5.65079,0,0,0,0,0,0,0,0,0,0,0,3.97355,14.8093,31.447,56.0561,66.2834,71.8742,73.6628,71.8333,65.8981,56.0852,42.0847,23.5432,5.63513,0,0,0,0,0,0,0,0,0,0,0,4.47864,18.2066,41.8962,56.2151,57.3902,70.9308,72.2803,69.9834,56.7404,39.9095,28.4809,18.675,5.29635,0,0,0,0,0,0,0,0,0,0,0,1.20525,4.91812,7.26161,8.97196,10.2032,28.4811,43.2757,36.625,25.2489,15.4595,3.94917,0.606985,0,0,0,0,0,0,0,0,0,0,0,0,4.44118,16.993,29.5696,39.6148,53.2874,52.6451,30.4127,35.9754,34.8975,7.61149,30.1308,22.5219,5.93901,0,0,0,0,0,0,0,0,0,0,0,4.8307,21.494,33.7521,22.2582,30.4789,49.5569,23.8118,21.8596,63.8831,54.1889,40.5526,23.0006,5.90512,0,0,0,0,0,0,0,0,0,0,0,0,0,0.37327,6.26689,15.8466,25.7616,35.7358,46.693,13.3428,4.36407,2.99369,3.53764,0.987589,0,0,0,0,0,0,0,0,0,0,0,4.91495,12.4882,29.3208,55.0237,65.0237,70.8057,58.1274,46.1082,45.6483,49.2684,41.7452,23.6504,6.03496,0,0,0,0,0,0,0,0,0,0,0,5.20219,23.0589,42.1609,56.9894,67.5315,73.9268,76.3094,74.0067,67.4584,51.1701,43.0053,19.5218,5.88272,0,0,0,0,0,0,0,0,0,0,0,5.425,23.5408,42.2237,55.8259,65.365,70.8866,72.9981,71.6067,66.5084,56.7477,42.882,24.7125,6.53787,0,0,0,0,0,0,0,0,0,0,0,5.30685,23.0751,41.5442,55.2312,64.5662,49.3691,71.9701,69.2048,63.7385,54.2924,40.954,23.6486,6.52855,0,0,0,0,0,0,0,0,0,0,0,5.32866,22.0715,40.2628,54.4679,64.6583,70.2586,70.8388,34.0851,61.5848,35.2939,35.6384,23.153,6.66851,0,0,0,0,0,0,0,0,0,0,0,5.39844,21.839,39.7,53.1177,62.525,60.3559,70.1997,68.5141,50.188,43.779,40.4951,23.5243,6.62133,0,0,0,0,0,0,0,0,0,0,0,5.24401,23.2266,42.4735,43.8147,67.1099,55.9381,50.7897,72.6233,46.4995,56.1641,32.5645,24.55,6.70637,0,0,0,0,0,0,0,0,0,0,0,5.30269,22.6331,40.9049,54.4183,64.3584,44.4734,57.6741,69.354,64.0777,54.6258,41.1685,23.7731,6.81421,0,0,0,0,0,0,0,0,0,0,0,5.2686,21.8915,39.8499,53.5937,63.8886,70.0108,72.2389,56.3673,63.6789,53.8613,32.4435,23.6179,6.8374,0,0,0,0,0,0,0,0,0,0,0,5.46167,21.6627,39.0415,52.5002,50.1369,67.6766,19.6804,46.9263,25.9358,38.6046,34.1337,20.8197,6.55769,0,0,0,0,0,0,0,0,0,0,0,5.36731,22.0693,39.6842,52.929,62.2048,67.2092,68.6854,67.1497,44.3892,35.3744,39.7827,0.0656146,0,0,0,0,0,0,0,0,0,0,0,0,5.52828,21.4984,38.4593,51.3459,60.6721,65.7222,67.1489,60.572,49.9232,45.2477,38.6268,19.3803,5.22875,0,0,0,0,0,0,0,0,0,0,0,5.41568,21.7668,39.1301,52.3059,60.6333,66.0337,40.4228,55.8309,60.5863,51.4983,38.9356,22.9096,7.25547,0,0,0,0,0,0,0,0,0,0,0,5.59746,16.4068,37.6596,49.9916,58.5701,63.8192,65.7787,56.1175,50.2868,34.0986,23.8732,16.0516,5.37802,0,0,0,0,0,0,0,0,0,0,0,2.8139,15.0822,22.8117,37.0506,55.9138,57.9555,61.2789,55.3377,56.083,45.7001,24.9141,21.0361,5.04003,0,0,0,0,0,0,0,0,0,0,0,2.90667,7.19322,23.9422,35.8591,44.1975,45.5417,56.1911,58.378,55.5587,44.7646,32.4671,23.3326,3.28509,0,0,0,0,0,0,0,0,0,0,0,0,10.16,21.0302,13.4215,23.1455,35.6884,32.7296,67.1539,58.0402,43.44,16.8475,12.7937,4.57895,0,0,0,0,0,0,0,0,0,0,0,4.87312,21.542,26.8368,51.8175,36.5289,36.2105,35.2117,49.1362,48.5508,10.916,11.2221,17.534,7.47035,0,0,0,0,0,0,0,0,0,0,0,1.82095,7.16785,10.469,28.5057,50.7847,37.19,55.1188,19.1892,19.9145,13.7953,7.78217,7.10481,1.21635,0,0,0,0,0,0,0,0,0,0,0,5.65594,21.6893,19.1198,34.1301,52.0992,55.3843,57.181,55.1623,63.7366,54.3983,28.7699,24.3121,7.92212,0,0,0,0,0,0,0,0,0,0,0,5.43392,23.1318,41.6147,41.1211,65.0738,35.716,55.4319,70.9466,64.8383,54.8316,41.2189,7.41861,7.09074,0,0,0,0,0,0,0,0,0,0,0,5.37861,22.0473,39.9432,53.4265,63.4842,54.5557,70.731,68.9824,63.4634,40.962,30.8807,24.2713,6.75731,0,0,0,0,0,0,0,0,0,0,0,5.22736,22.0011,39.8176,53.2255,63.0763,68.7219,51.0831,69.1164,63.7401,54.5937,41.8136,25.0178,7.7792,0,0,0,0,0,0,0,0,0,0,0,5.14074,21.2028,38.3943,51.6084,60.5335,65.7456,51.9479,66.1322,61.0075,52.746,40.4582,24.4176,7.89655,0,0,0,0,0,0,0,0,0,0,0,5.32509,21.3089,38.8234,52.1848,62.0865,68.0856,52.3894,36.5672,63.4531,54.1434,41.8486,19.1418,5.86012,0,0,0,0,0,0,0,0,0,0,0,5.41449,21.9527,40.1435,53.7183,63.6602,69.9087,72.5779,71.0652,65.7018,56.7289,43.7903,26.5127,8.46349,0,0,0,0,0,0,0,0,0,0,0,5.31518,22.7887,40.8894,54.2363,63.2451,61.6238,33.7856,70.0187,55.4279,55.5185,42.7833,25.0693,7.33516,0,0,0,0,0,0,0,0,0,0,0,4.08059,9.24512,25.7388,42.6709,61.466,58.5116,54.6391,42.2903,30.3695,42.184,25.9838,18.0789,4.03183,0,0,0,0,0,0,0,0,0,0,0,0,5.72512,6.39217,14.7191,22.5498,26.9965,33.0262,48.5786,41.2361,41.0983,27.349,23.1647,6.74264,0,0,0,0,0,0,0,0,0,0,0,0.295761,5.61828,13.2581,40.4416,46.5511,42.9518,25.6063,57.929,64.1229,43.562,39.5597,24.4112,8.51067,0,0,0,0,0,0,0,0,0,0,0,5.01407,20.8484,38.2448,52.2851,63.1333,52.0764,55.4075,62.4084,59.4092,50.0923,32.6154,16.5311,6.42924,0,0,0,0,0,0,0,0,0,0,0,4.6745,6.2996,20.2476,25.6589,50.7038,35.5675,39.7399,49.4913,53.5835,34.2258,28.6734,21.6029,7.83549,0,0,0,0,0,0,0,0,0,0,0,4.85053,9.57716,39.2211,29.4653,29.3577,47.9226,45.8129,44.0966,27.1575,44.2167,6.13189,24.3817,7.23287,0,0,0,0,0,0,0,0,0,0,0,3.06307,3.99377,13.4655,31.1794,30.4018,56.8423,56.6028,69.0521,58.2099,50.8418,35.1833,23.2619,8.4958,0.0319153,0,0,0,0,0,0,0,0,0,0,4.07663,18.4191,30.9873,22.4434,31.0238,27.4979,29.5436,23.5099,21.3293,32.9034,35.1758,26.0054,8.28072,0.0786979,0,0,0,0,0,0,0,0,0,0,0,7.17915,15.6157,28.7616,26.1154,38.3475,45.3639,42.229,44.3761,38.6123,19.2596,16.5268,0.152044,0,0,0,0,0,0,0,0,0,0,0,4.3603,20.9081,38.9364,4.62038,19.1164,53.7558,59.2742,58.1056,63.6462,54.9333,42.3993,25.9971,8.55924,0.0761209,0,0,0,0,0,0,0,0,0,0,4.50203,20.6942,38.5287,51.9507,60.8925,66.645,68.7625,67.8162,63.7177,55.3163,39.811,22.2507,7.99824,0.0297347,0,0,0,0,0,0,0,0,0,0,3.87285,20.7241,38.6859,52.0948,61.8581,67.6556,70.0148,67.5856,62.8497,54.2934,39.2352,21.8568,5.84624,0,0,0,0,0,0,0,0,0,0,0,4.26852,18.562,29.2108,42.9702,55.6588,58.5439,45.4404,47.527,26.1055,49.0323,34.1832,18.9523,7.29551,0,0,0,0,0,0,0,0,0,0,0,0.215478,17.9695,26.7527,37.2844,59.292,65.117,67.4816,66.2795,61.8996,43.286,28.8439,1.03596,1.96923,0,0,0,0,0,0,0,0,0,0,0,0.824246,14.2277,29.9851,44.7091,53.8002,53.7501,59.2403,58.1581,45.9695,39.6243,34.3698,21.7456,8.01727,0,0,0,0,0,0,0,0,0,0,0,4.46536,19.0578,37.839,50.9041,59.3416,64.9741,58.6836,40.2745,49.7224,46.291,31.9498,21.0932,5.49319,0,0,0,0,0,0,0,0,0,0,0,4.65745,19.2358,36.1786,40.7074,27.9167,55.259,58.5962,48.0594,55.7191,47.6338,30.6513,9.61165,7.16845,0,0,0,0,0,0,0,0,0,0,0,4.34285,19.4707,36.8481,50.2132,60.1256,65.8656,44.5028,66.4611,62.4237,54.1471,41.9446,25.8238,8.69225,0,0,0,0,0,0,0,0,0,0,0,3.74816,19.7871,37.5712,51.1707,60.5892,66.3588,57.1299,47.8489,20.1584,44.7246,37.3105,17.287,6.90301,0,0,0,0,0,0,0,0,0,0,0,3.39888,19.4582,20.2099,39.9268,59.1665,50.1569,40.3968,11.1977,42.9371,48.1124,41.473,22.1044,8.30808,0.0295365,0,0,0,0,0,0,0,0,0,0,4.07623,19.4154,36.8823,50.5964,42.8366,49.0203,59.6617,51.1857,30.8753,4.04709,19.251,19.1028,7.78098,0,0,0,0,0,0,0,0,0,0,0,1.80708,13.8441,25.5998,43.5691,52.3105,50.4499,35.6254,58.1316,49.8007,41.2763,22.9031,19.9016,5.51797,0,0,0,0,0,0,0,0,0,0,0,3.40562,14.9447,25.4327,33.4535,29.7224,66.1074,53.5037,68.5455,55.3904,44.6758,32.5042,22.016,8.34574,0,0,0,0,0,0,0,0,0,0,0,3.54735,17.2146,34.6392,37.5436,61.575,67.877,70.1151,61.4347,55.9334,48.2198,34.9197,25.9834,8.74835,0,0,0,0,0,0,0,0,0,0,0,3.53308,19.2191,37.3321,30.4922,18.4964,67.0887,12.4927,58.3774,52.699,45.2828,30.4694,7.82182,5.02081,0,0,0,0,0,0,0,0,0,0,0,3.74558,18.743,36.2595,50.0211,41.7888,39.8265,43.422,66.8242,61.687,40.9197,12.4248,16.8863,6.82273,0,0,0,0,0,0,0,0,0,0,0,3.76303,18.716,36.1453,49.7658,58.8712,64.8639,67.0706,65.7149,61.2143,52.8021,40.8793,18.3998,0.359988,0,0,0,0,0,0,0,0,0,0,0,3.84648,12.02,21.7595,32.7003,45.5268,39.1295,53.7846,67.7065,62.8487,19.8414,4.42155,13.5132,6.76366,0,0,0,0,0,0,0,0,0,0,0,3.82289,8.64745,16.772,31.3562,29.6689,49.7299,55.4027,57.3321,57.7081,53.852,41.1885,20.3883,7.94056,0,0,0,0,0,0,0,0,0,0,0,3.66827,8.80921,36.9535,39.4492,52.5932,59.2478,57.0522,60.4348,64.4262,40.5877,32.2305,8.02481,6.33944,0,0,0,0,0,0,0,0,0,0,0,3.44308,18.7382,37.0774,51.6583,60.7782,67.1989,69.6655,68.8505,63.2858,54.158,27.1008,6.25817,2.3423,0,0,0,0,0,0,0,0,0,0,0,2.99429,15.7305,34.2084,33.9751,42.6971,66.6262,69.0706,67.3079,62.0853,53.4543,41.6324,25.4133,8.03848,0,0,0,0,0,0,0,0,0,0,0,3.295,18.4593,36.3888,50.0425,60.1167,66.2658,30.5477,65.4269,38.4963,45.0653,34.4152,23.989,8.35347,0,0,0,0,0,0,0,0,0,0,0,3.34218,17.3502,33.935,47.3492,56.7963,62.8449,49.2899,63.7415,52.3454,50.3244,38.1944,23.2422,4.47983,0,0,0,0,0,0,0,0,0,0,0,2.96653,16.8394,33.0575,46.4551,56.5536,62.4005,48.6422,28.9917,58.4285,50.1337,38.268,22.3056,0,0,0,0,0,0,0,0,0,0,0,0,3.20738,17.3102,19.2057,25.0658,58.952,65.4418,67.7026,66.5235,61.4117,52.4719,39.8945,20.6071,6.35589,0,0,0,0,0,0,0,0,0,0,0,2.18491,11.3301,11.9837,34.0722,47.9768,21.564,11.8469,26.1584,47.6723,19.3803,1.55632,9.05977,3.48114,0,0,0,0,0,0,0,0,0,0,0,3.12948,17.6192,35.7358,49.6685,59.6593,65.8947,68.1694,66.2811,47.0306,52.86,40.3443,24.1759,7.07131,0,0,0,0,0,0,0,0,0,0,0,3.05851,17.2073,34.3682,47.7084,24.0025,48.4791,58.8341,57.6213,43.0388,46.6072,36.6209,17.8246,4.76628,0,0,0,0,0,0,0,0,0,0,0,2.88764,16.9238,15.0886,8.33306,33.9146,57.5135,53.3782,54.1943,47.9601,40.4275,6.73392,8.1489,4.56567,0,0,0,0,0,0,0,0,0,0,0,2.74907,17.0546,34.7422,48.8666,59.3652,65.7936,56.4252,44.1459,51.9168,54.8384,42.1042,23.8786,6.37592,0,0,0,0,0,0,0,0,0,0,0,2.78039,16.8025,34.6296,48.7243,13.6907,48.0021,68.644,26.5749,45.2864,37.457,38.1958,20.0541,5.84763,0,0,0,0,0,0,0,0,0,0,0,2.71577,16.8477,34.9478,49.4361,33.3221,12.5948,22.1044,21.7944,37.0084,40.417,38.0121,23.382,7.18549,0,0,0,0,0,0,0,0,0,0,0,1.90976,5.07195,12.3976,42.6667,21.3362,46.3083,47.385,51.489,7.75125,9.66775,4.93993,9.48537,3.81814,0,0,0,0,0,0,0,0,0,0,0,2.47611,14.5988,16.3979,4.07148,47.0461,35.7915,59.7396,61.0811,44.2272,42.7496,34.4084,22.531,6.92006,0,0,0,0,0,0,0,0,0,0,0,1.26947,8.2492,28.8782,26.3563,41.0553,51.785,21.2714,19.0594,24.4405,43.784,41.2339,24.1016,7.20135,0,0,0,0,0,0,0,0,0,0,0,2.27233,16.6719,35.149,49.2028,59.0167,50.7447,67.4429,45.9477,34.612,41.022,39.8838,23.49,6.27066,0,0,0,0,0,0,0,0,0,0,0,2.26975,16.7131,35.2354,49.6982,60.0774,50.0622,49.6013,30.8004,20.9636,25.1478,34.301,23.2399,6.83879,0,0,0,0,0,0,0,0,0,0,0,2.29374,16.2879,34.3204,48.7856,59.7468,65.9189,46.9031,66.7196,42.4893,47.1347,28.1025,13.0652,4.35752,0,0,0,0,0,0,0,0,0,0,0,2.21325,16.2411,34.526,48.8809,59.3178,55.2203,57.1479,54.0742,48.6682,52.6019,39.8788,23.0716,6.62073,0,0,0,0,0,0,0,0,0,0,0,1.82948,13.4928,31.3933,46.9087,49.5876,54.8453,44.8059,65.0219,60.2552,51.56,38.4256,20.8151,5.13201,0,0,0,0,0,0,0,0,0,0,0,1.07045,11.907,24.415,46.8237,58.0755,64.6488,67.2845,55.6176,57.279,47.9621,30.3522,19.8899,0,0,0,0,0,0,0,0,0,0,0,0,1.66713,11.453,26.224,37.5974,45.9195,48.9804,43.4196,13.4181,22.9276,13.6722,24.7851,21.8568,6.1983,0,0,0,0,0,0,0,0,0,0,0,1.9387,16.5379,35.5528,50.2981,60.817,52.6616,52.1414,38.9975,63.1716,54.455,41.3689,23.8344,5.88272,0,0,0,0,0,0,0,0,0,0,0,1.71649,16.5825,35.8531,50.6055,41.0864,42.3549,70.7807,69.4934,64.1447,54.9008,41.7545,23.9507,5.70233,0,0,0,0,0,0,0,0,0,0,0,1.61995,16.1315,34.4879,48.5996,58.8307,64.8312,67.2583,58.3143,47.5528,41.4994,24.4477,18.854,5.71303,0,0,0,0,0,0,0,0,0,0,0,1.59299,16.3904,35.7011,50.1962,60.5528,66.7905,68.6814,67.3049,62.2114,53.2559,40.5082,23.1243,5.51024,0,0,0,0,0,0,0,0,0,0,0,1.44768,16.3493,35.7635,50.3597,60.799,67.1146,57.278,27.735,22.0572,53.8478,37.4677,19.7163,4.43107,0,0,0,0,0,0,0,0,0,0,0,1.39377,16.1456,35.4559,50.2013,60.7149,29.0871,62.929,67.7494,12.6224,12.2898,29.9474,16.1915,4.7526,0,0,0,0,0,0,0,0,0,0,0,1.28791,16.1497,35.5712,50.8204,61.8195,68.4749,56.8611,42.732,43.1706,41.5481,16.1291,23.044,5.05094,0,0,0,0,0,0,0,0,0,0,0,1.27165,9.91554,12.7958,24.2453,33.0388,42.4435,33.9222,22.8361,16.226,3.92122,18.9468,0.151251,1.86635,0,0,0,0,0,0,0,0,0,0,0,0.394084,2.9705,16.5567,18.1142,28.5269,31.3311,54.9095,36.5267,51.1255,21.1255,10.2095,3.96582,1.10018,0,0,0,0,0,0,0,0,0,0,0,0.891843,8.51543,12.729,25.9554,46.5612,53.7312,23.7632,44.5922,8.46924,52.0054,38.695,13.9067,4.58291,0,0,0,0,0,0,0,0,0,0,0,0.675375,10.026,20.4321,44.9282,58.8432,34.6116,54.4209,40.6914,36.2621,51.1826,37.4059,17.9441,3.55845,0,0,0,0,0,0,0,0,0,0,0,0.890852,15.5061,34.7054,49.6554,60.483,66.6262,68.5363,21.2827,51.5354,51.7529,38.6121,17.2447,3.92379,0,0,0,0,0,0,0,0,0,0,0,0.816119,15.7047,35.5932,51.1619,61.6026,49.3648,52.906,31.9969,5.93089,10.9438,21.1107,19.7304,3.94996,0,0,0,0,0,0,0,0,0,0,0,0.187527,5.86963,19.5325,21.702,10.195,4.96391,9.15453,13.4532,17.779,17.8379,20.1742,19.0774,3.75034,0,0,0,0,0,0,0,0,0,0,0,0.642072,6.78388,19.2713,30.7552,38.7891,46.31,42.2231,19.4729,34.7799,31.2803,22.3078,10.963,2.12484,0,0,0,0,0,0,0,0,0,0,0,0.0739403,8.31105,20.2351,21.2534,11.4691,28.0444,27.7024,39.5862,41.3636,49.0205,30.7433,15.4236,1.89311,0,0,0,0,0,0,0,0,0,0,0,0.556237,9.55832,23.1179,30.6194,41.9965,43.5203,57.4909,54.5281,50.3549,44.4286,30.13,12.5921,2.26301,0,0,0,0,0,0,0,0,0,0,0,0.601831,15.7067,36.1108,51.8714,62.9107,69.6336,59.109,56.3903,63.2144,44.9577,39.432,18.071,3.06268,0,0,0,0,0,0,0,0,0,0,0,0.471394,15.3838,35.3542,50.7843,33.6621,67.5299,50.323,55.9417,62.1172,37.8913,4.5399,12.0547,2.96336,0,0,0,0,0,0,0,0,0,0,0,0.436902,14.9461,26.8072,48.5425,59.2365,31.8639,17.6838,40.5383,61.4028,51.645,37.9179,7.16349,2.84343,0,0,0,0,0,0,0,0,0,0,0,0.353447,14.9653,34.3357,49.6855,60.9151,67.7339,69.9634,68.7344,62.5902,52.3157,37.7248,18.8476,2.62102,0,0,0,0,0,0,0,0,0,0,0,0,0.0773103,22.9213,37.9284,56.3485,62.8386,65.3339,62.878,48.7923,33.2323,19.419,8.71425,1.85822,0,0,0,0,0,0,0,0,0,0,0,0.170281,13.5557,31.043,45.8642,31.7757,48.5532,43.6296,63.5708,58.1744,48.5697,35.3734,17.4876,2.2527,0,0,0,0,0,0,0,0,0,0,0,0.34294,14.4172,34.2118,49.9359,61.0176,67.4853,46.5106,43.8157,50.5976,50.9405,34.8695,0,0.817308,0,0,0,0,0,0,0,0,0,0,0,0.309638,14.4334,34.226,49.4869,60.353,66.845,69.0993,46.0416,60.7179,19.4075,36.6425,17.7958,1.8715,0,0,0,0,0,0,0,0,0,0,0,0.26226,14.1898,29.4302,31.6377,43.2844,32.4747,49.7733,38.3721,50.868,34.6703,24.6423,6.13903,1.59814,0,0,0,0,0,0,0,0,0,0,0,0.221028,12.1312,23.5138,36.917,42.926,51.6768,58.867,53.0761,52.7627,37.122,30.2779,15.7967,1.345,0,0,0,0,0,0,0,0,0,0,0,0,0.079689,1.36324,2.96693,10.1415,12.9394,11.9088,9.57022,6.4677,8.10172,13.7212,11.6477,0.961621,0,0,0,0,0,0,0,0,0,0,0,0.286444,14.2742,34.4619,24.3284,26.0456,68.4424,54.4308,49.5755,27.6783,41.0664,21.4032,10.0527,0.560004,0,0,0,0,0,0,0,0,0,0,0,0.249772,14.3985,11.3773,15.643,23.1844,12.9314,17.8884,21.0922,26.5404,51.0394,36.0672,16.479,0.760614,0,0,0,0,0,0,0,0,0,0,0,0.248186,14.6146,34.9395,50.7889,45.3322,69.0404,71.3661,55.5492,62.9518,51.8191,36.3309,16.4062,0.64227,0,0,0,0,0,0,0,0,0,0,0,0.144709,14.2102,34.2714,50.2435,60.8521,67.743,70.4659,68.0525,61.7102,33.9154,35.3235,15.8557,0.546326,0,0,0,0,0,0,0,0,0,0,0,0,3.3174,23.153,35.3385,51.9569,44.8883,58.3459,57.6695,60.7395,50.0116,34.8463,15.4113,0.419458,0,0,0,0,0,0,0,0,0,0,0,0.0953493,14.1928,34.7797,51.2069,61.9541,68.9814,71.5134,69.4771,62.7046,51.516,36.087,15.8974,0.381596,0,0,0,0,0,0,0,0,0,0,0,0.0989175,14.3373,34.9179,50.354,61.0424,67.2342,69.4674,67.479,61.3108,50.8759,35.1058,15.3199,0.300519,0,0,0,0,0,0,0,0,0,0,0,0.095944,14.2635,11.473,18.7097,41.7337,64.8149,65.8099,62.9934,57.0072,46.7989,32.3486,13.8936,0.177021,0,0,0,0,0,0,0,0,0,0,0,0,3.45795,6.77892,22.5219,49.6268,44.0625,12.9602,5.62898,31.3152,3.071,2.81964,9.66517,0.170083,0,0,0,0,0,0,0,0,0,0,0,0,9.32104,33.0156,41.5999,59.0843,65.6689,67.8832,55.0653,59.5856,42.3036,33.2611,13.0922,0.170083,0,0,0,0,0,0,0,0,0,0,0,0,13.3202,30.2596,42.3048,47.0927,57.834,56.2448,60.908,54,43.2985,16.9226,13.1986,0,0,0,0,0,0,0,0,0,0,0,0,0,13.9811,35.487,52.3611,64.0341,70.9141,73.0219,70.0623,63.2107,51.7358,35.4117,14.4094,0.0446021,0,0,0,0,0,0,0,0,0,0,0,0,14.8755,36.8724,53.4196,64.5329,71.0868,73.0201,70.4685,63.8694,52.1933,35.8466,14.458,0,0,0,0,0,0,0,0,0,0,0,0,0,10.0878,33.5671,44.0833,50.9479,66.7945,68.4783,65.0602,50.4227,33.3221,18.3541,3.73627,0,0,0,0,0,0,0,0,0,0,0,0,0,12.7887,32.6303,41.1832,47.4291,56.2993,39.7216,45.9269,37.1149,32.2564,28.5154,11.0579,0,0,0,0,0,0,0,0,0,0,0,0,0,9.72286,22.486,36.7759,48.2259,66.6742,55.8244,33.5362,31.5842,3.72457,13.9139,5.10981,0,0,0,0,0,0,0,0,0,0,0,0,0,0.00436109,9.17772,23.1132,34.1097,42.7809,26.7141,19.9526,14.0296,10.8337,17.6357,3.64944,0,0,0,0,0,0,0,0,0,0,0,0,0,3.28747,15.2454,28.2706,22.8224,46.4373,69.61,47.4528,42.1089,49.2387,32.8838,12.1565,0,0,0,0,0,0,0,0,0,0,0,0,0,12.5132,17.9596,41.784,46.9089,46.9971,50.2144,35.3928,28.4835,34.1565,26.0248,7.18173,0,0,0,0,0,0,0,0,0,0,0,0,0,3.87443,10.5013,22.3514,26.1128,28.1921,39.7831,34.8023,19.969,19.5954,3.89624,2.69912,0,0,0,0,0,0,0,0,0,0,0,0,0,12.7362,23.7687,39.9218,53.4906,37.5653,46.6528,30.6335,17.2061,23.0167,20.8312,10.1629,0,0,0,0,0,0,0,0,0,0,0,0,0,12.1316,32.0074,47.1823,57.7755,63.822,50.9201,63.6087,50.7673,40.574,13.8843,9.76706,0,0,0,0,0,0,0,0,0,0,0,0,0,11.7805,31.4617,47.1242,58.2919,64.7577,45.9374,64.8574,57.8646,27.9778,29.7902,10.086,0,0,0,0,0,0,0,0,0,0,0,0,0,13.7285,31.5105,53.9679,65.1888,71.8181,73.6418,70.3702,62.7888,50.825,32.997,11.0098,0,0,0,0,0,0,0,0,0,0,0,0,0,11.1953,30.2366,53.5491,50.1985,53.4216,72.9325,60.971,57.5741,29.7771,9.8416,9.10318,0,0,0,0,0,0,0,0,0,0,0,0,0,12.6474,33.7969,50.1204,60.8396,66.8884,68.2457,64.9971,57.6332,46.136,28.6133,8.77848,0,0,0,0,0,0,0,0,0,0,0,0,0,11.2843,30.6012,45.3896,55.3767,61.0055,62.8802,59.9024,53.2941,42.0259,25.0701,7.34547,0,0,0,0,0,0,0,0,0,0,0,0,0,5.12408,23.3243,34.227,50.7673,54.409,57.6407,56.34,55.2558,43.7707,27.2049,8.2383,0,0,0,0,0,0,0,0,0,0,0,0,0,12.2186,33.6006,50.1064,61.3025,67.8875,69.4022,66.1009,58.6285,46.6732,29.1822,8.54516,0,0,0,0,0,0,0,0,0,0,0,0,0,12.0755,33.2157,49.3402,59.8687,65.7625,66.9701,63.5764,56.4708,44.9712,28.0567,8.03313,0,0,0,0,0,0,0,0,0,0,0,0,0,11.5359,31.9987,47.6392,58.0656,63.8981,65.1307,61.6839,54.4122,42.4695,24.6098,6.55155,0,0,0,0,0,0,0,0,0,0,0,0,0,10.876,31.0732,47.7873,60.1422,66.7608,68.3877,65.8093,58.7209,46.9152,29.1081,7.99051,0,0,0,0,0,0,0,0,0,0,0,0,0,12.2021,34.0994,51.0048,62.3594,68.9499,71.0347,67.9109,60.2279,47.6931,29.1275,7.70347,0,0,0,0,0,0,0,0,0,0,0,0,0,12.0816,13.2024,22.1619,28.2343,50.395,29.8759,65.8939,58.063,28.4757,27.5784,7.00629,0,0,0,0,0,0,0,0,0,0,0,0,0,11.6851,33.0648,49.3388,60.1664,49.1447,31.8788,42.9756,16.9185,41.9983,11.9169,5.78638,0,0,0,0,0,0,0,0,0,0,0,0,0,1.94406,6.24885,25.5138,50.9163,48.6833,51.4746,41.3527,24.8041,43.9283,25.981,6.12515,0,0,0,0,0,0,0,0,0,0,0,0,0,11.4138,33.4716,37.9572,61.0602,56.4333,68.7645,50.4305,50.1706,45.9865,27.681,6.6023,0,0,0,0,0,0,0,0,0,0,0,0,0,3.51722,23.5041,23.4902,23.5689,49.2425,11.7131,44.4532,33.4755,30.2146,11.4653,2.97763,0,0,0,0,0,0,0,0,0,0,0,0,0,12.0378,27.7102,52.28,63.8022,69.8748,71.1231,67.6312,59.2409,46.6044,27.8033,6.2877,0,0,0,0,0,0,0,0,0,0,0,0,0,11.4332,27.8075,50.5667,53.7503,49.1192,59.5856,55.4267,44.0554,31.5287,23.6226,2.68465,0,0,0,0,0,0,0,0,0,0,0,0,0,2.53102,9.26415,30.3919,23.7681,9.12935,24.6602,14.12,15.1316,23.535,7.16428,1.65107,0,0,0,0,0,0,0,0,0,0,0,0,0,5.60321,23.0258,25.2129,11.6822,17.2257,15.3715,18.6512,11.6289,4.6852,5.8962,0.748522,0,0,0,0,0,0,0,0,0,0,0,0,0,2.91777,13.4667,13.694,20.4678,19.8325,46.8151,36.0371,25.178,35.9481,19.6743,3.14871,0,0,0,0,0,0,0,0,0,0,0,0,0,9.29131,15.3223,44.3729,54.4966,60.8866,62.6721,60.0049,52.6055,24.6935,22.3643,3.81853,0,0,0,0,0,0,0,0,0,0,0,0,0,6.18819,24.4697,45.7994,56.9749,62.8976,64.3864,61.2095,53.1258,40.6037,22.4117,3.70177,0,0,0,0,0,0,0,0,0,0,0,0,0,8.92616,29.0405,22.3108,27.9905,42.5944,61.7533,38.5336,50.3183,38.3029,20.845,3.2052,0,0,0,0,0,0,0,0,0,0,0,0,0,8.42622,28.4539,45.1855,35.4658,37.8406,48.9685,45.7298,44.2928,28.0315,21.1491,3.00876,0,0,0,0,0,0,0,0,0,0,0,0,0,0.0216072,22.1109,30.867,62.9609,70.4633,72.7961,69.5757,61.3814,47.4275,26.5309,3.88494,0,0,0,0,0,0,0,0,0,0,0,0,0,10.3025,33.0283,51.318,63.3328,70.0423,71.4499,67.4534,58.575,44.7587,24.4532,3.17527,0,0,0,0,0,0,0,0,0,0,0,0,0,9.90206,32.4134,49.9274,45.0352,67.4869,68.6275,64.8748,56.0147,43.0505,23.4694,2.757,0,0,0,0,0,0,0,0,0,0,0,0,0,0,6.92601,13.3166,13.1814,28.7636,21.0423,10.601,16.1006,11.0094,0.242437,0,0,0,0,0,0,0,0,0,0,0,0,0,0,5.90968,6.84711,23.782,33.5931,38.4087,32.5464,15.0872,3.79435,8.97374,3.79792,0,0,0,0,0,0,0,0,0,0,0,0,0,0,8.75945,30.8506,33.0753,45.1995,68.661,70.1545,66.2892,57.7159,43.9983,23.5164,1.90044,0,0,0,0,0,0,0,0,0,0,0,0,0,9.1466,31.8574,49.6816,61.0311,67.0494,68.0225,63.891,55.5978,42.3966,23.0456,1.73671,0,0,0,0,0,0,0,0,0,0,0,0,0,8.81119,31.1334,48.6565,59.876,66.1831,67.1685,63.7512,55.6412,42.596,22.7144,1.65404,0,0,0,0,0,0,0,0,0,0,0,0,0,7.69277,28.6811,45.6797,56.044,61.1524,41.6478,59.2777,51.9717,39.568,20.8268,1.31943,0,0,0,0,0,0,0,0,0,0,0,0,0,2.6898,8.20183,20.6807,33.3231,29.1141,28.6145,12.2862,16.5634,0.834356,6.96268,0.120921,0,0,0,0,0,0,0,0,0,0,0,0,0,7.55282,4.75934,11.2451,35.9219,64.2708,65.9922,62.8336,54.627,41.4282,21.4845,1.26947,0,0,0,0,0,0,0,0,0,0,0,0,0,8.03313,31.0456,49.612,61.6173,68.2483,69.4968,65.636,56.7552,42.9508,22.0862,1.25441,0,0,0,0,0,0,0,0,0,0,0,0,0,7.21265,28.9723,47.1093,47.0766,51.2375,65.8798,52.7999,52.1991,28.4308,13.0113,0.326289,0,0,0,0,0,0,0,0,0,0,0,0,0,5.69598,26.1418,44.4768,57.7125,63.7278,65.2251,61.4789,52.7944,38.9578,19.1884,0.766165,0,0,0,0,0,0,0,0,0,0,0,0,0,0.656146,10.2815,27.4973,54.1626,60.462,61.5774,57.8741,49.8296,36.8699,18.208,0.611742,0,0,0,0,0,0,0,0,0,0,0,0,0,0.933868,4.25444,34.2199,39.7151,59.3206,31.448,27.8372,11.1781,7.61903,7.60892,0.425008,0,0,0,0,0,0,0,0,0,0,0,0,0,6.8594,29.7744,48.9735,61.2107,67.6152,68.9732,64.8032,55.5462,41.5672,20.759,0.802441,0,0,0,0,0,0,0,0,0,0,0,0,0,5.57011,26.3678,44.4546,48.1831,62.0688,62.4877,58.7986,50.0025,37.0728,7.67453,0.473178,0,0,0,0,0,0,0,0,0,0,0,0,0,5.29575,25.7852,43.6018,43.9362,45.9193,42.7262,59.2688,50.7677,27.7157,18.7612,0.537405,0,0,0,0,0,0,0,0,0,0,0,0,0,5.38991,26.2565,44.209,55.1979,60.5385,61.5197,58.3292,50.2879,37.2552,18.2264,0.421242,0,0,0,0,0,0,0,0,0,0,0,0,0,3.19113,19.8699,37.9074,46.2839,49.3525,43.2648,48.1298,35.3546,25.42,5.59409,0,0,0,0,0,0,0,0,0,0,0,0,0,0,5.00297,18.4536,37.0314,51.963,70.4526,72.0583,68.0451,58.4024,43.6434,21.5446,0.656939,0,0,0,0,0,0,0,0,0,0,0,0,0,4.77361,26.8447,45.8648,52.0605,64.1057,58.8829,61.0997,52.277,35.4539,0.24878,0,0,0,0,0,0,0,0,0,0,0,0,0,0,1.09226,2.88744,6.29008,8.72298,8.87006,10.5693,5.70352,9.35018,5.38278,4.7857,0,0,0,0,0,0,0,0,0,0,0,0,0,0,3.38718,23.0468,22.6539,52.3751,40.0059,59.6159,22.3482,21.2441,6.48712,5.72354,0,0,0,0,0,0,0,0,0,0,0,0,0,0,2.86484,21.9557,21.7291,16.2344,37.1159,43.4474,46.0856,38.9279,6.16044,2.73678,0,0,0,0,0,0,0,0,0,0,0,0,0,0,0.112992,1.88578,5.09098,5.98818,15.4995,12.3522,16.1279,9.0903,23.1197,4.03758,0,0,0,0,0,0,0,0,0,0,0,0,0,0,3.10569,25.6347,45.1863,56.9838,63.7048,65.2027,61.4329,52.7099,38.867,9.46932,0,0,0,0,0,0,0,0,0,0,0,0,0,0,0.558814,12.8694,26.3913,25.3907,31.3273,24.5484,32.7605,15.3667,10.1518,1.9726,0,0,0,0,0,0,0,0,0,0,0,0,0,0,1.32696,8.98088,19.4132,50.8717,57.9294,59.6726,56.1284,47.7264,14.9926,9.58271,0,0,0,0,0,0,0,0,0,0,0,0,0,0,1.58268,3.69622,13.2343,22.7843,56.2517,57.1549,53.7661,45.753,13.1905,3.24584,0,0,0,0,0,0,0,0,0,0,0,0,0,0,1.47583,20.2202,37.7213,49.0944,11.7987,34.9906,31.3434,32.2505,33.5606,4.5847,0,0,0,0,0,0,0,0,0,0,0,0,0,0,1.80569,22.9175,43.0242,56.0071,63.2999,65.2275,61.9578,53.1681,39.1747,16.8033,0,0,0,0,0,0,0,0,0,0,0,0,0,0,0,5.98144,15.195,16.1747,20.7782,17.2307,29.2001,12.6172,16.3,3.06406,0,0,0,0,0,0,0,0,0,0,0,0,0,0,0,0.484279,0.402806,1.80668,34.55,13.2022,21.9177,11.882,4.38567,4.09507,0,0,0,0,0,0,0,0,0,0,0,0,0,0,1.12536,0.280497,5.10585,8.76758,11.9082,11.1797,23.5495,56.0852,41.2365,19.458,0,0,0,0,0,0,0,0,0,0,0,0,0,0,1.78646,24.6753,45.6838,58.2682,65.1256,66.9501,63.3867,54.5971,31.0773,5.86349,0,0,0,0,0,0,0,0,0,0,0,0,0,0,1.41379,22.7387,42.7758,55.2901,62.3961,64.0979,60.5377,52.277,38.4799,18.1885,0,0,0,0,0,0,0,0,0,0,0,0,0,0,0.892636,20.5277,27.5462,52.922,59.5121,61.2741,58.0529,49.4514,35.6949,16.2851,0,0,0,0,0,0,0,0,0,0,0,0,0,0,0,4.29607,22.2527,33.6272,46.1955,45.28,42.4846,32.7692,18.5537,12.9701,0,0,0,0,0,0,0,0,0,0,0,0,0,0,0,4.14363,37.5002,50.6902,57.8231,59.7749,56.9333,17.2463,35.6706,16.4179,0,0,0,0,0,0,0,0,0,0,0,0,0,0,0.66467,19.1918,37.8224,50.0955,56.9947,58.6967,42.8525,31.1941,34.5234,15.784,0,0,0,0,0,0,0,0,0,0,0,0,0,0,0.346112,7.82578,14.3,25.6335,39.9678,43.1772,41.8082,33.9228,27.0558,10.7878,0,0,0,0,0,0,0,0,0,0,0,0,0,0,0.23094,16.4411,23.5941,40.6279,53.9092,42.6663,45.5994,32.302,24.3468,6.66414,0,0,0,0,0,0,0,0,0,0,0,0,0,0,0.336002,17.5322,35.9029,48.5152,24.7746,22.599,38.379,45.4578,32.2869,14.4071,0,0,0,0,0,0,0,0,0,0,0,0,0,0,0.241248,17.0398,35.0073,2.55778,15.5413,32.9149,53.1544,15.064,0.844664,0,0,0,0,0,0,0,0,0,0,0,0,0,0,0,0,17.058,35.7023,48.0628,55.1817,57.4043,54.6437,46.7535,33.9509,15.7259,0,0,0,0,0,0,0,0,0,0,0,0,0,0,0,17.2069,35.645,47.9629,55.2392,57.3846,54.2318,25.4622,9.27664,5.0327,0,0,0,0,0,0,0,0,0,0,0,0,0,0,0,6.31724,15.9765,33.2355,54.9648,57.6465,37.8471,33.8629,25.9198,16.0058,0,0,0,0,0,0,0,0,0,0,0,0,0,0,0,18.1419,37.6842,20.1373,37.8013,35.0327,31.5513,48.6728,35.8482,16.8832,0,0,0,0,0,0,0,0,0,0,0,0,0,0,0,18.4764,39.4173,53.8585,62.4463,65.3609,62.6284,54.6938,40.6343,19.9258,0,0,0,0,0,0,0,0,0,0,0,0,0,0,0,19.1034,39.4128,52.8776,49.5117,44.5059,43.5342,50.9826,37.3637,17.8337,0,0,0,0,0,0,0,0,0,0,0,0,0,0,0,6.28314,17.0727,33.2511,28.5917,4.01121,9.96232,4.96233,5.41866,4.5736,0,0,0,0,0,0,0,0,0,0,0,0,0,0,0,0.737421,3.66352,11.7843,16.8096,7.5207,10.2977,16.4201,11.9716,6.63619,0,0,0,0,0,0,0,0,0,0,0,0,0,0,0,18.406,39.2137,52.8612,60.6309,63.0776,60.5397,52.8447,39.5252,19.6091,0,0,0,0,0,0,0,0,0,0,0,0,0,0,0,18.3967,38.6837,51.9878,59.5406,62.2225,59.8455,52.3559,39.3456,19.9728,0,0,0,0,0,0,0,0,0,0,0,0,0,0,0,17.0094,38.3088,52.8184,61.0587,63.4818,60.9877,52.9456,39.4718,19.5409,0,0,0,0,0,0,0,0,0,0,0,0,0,0,0,18.1895,38.847,52.5109,60.0207,62.3626,59.5947,52.028,39.3275,19.8426,0,0,0,0,0,0,0,0,0,0,0,0,0,0,0,15.3407,34.1699,47.5484,54.8907,57.2877,54.4692,34.2645,34.8626,16.942,0.228957,0,0,0,0,0,0,0,0,0,0,0,0,0,0,13.6986,32.8061,46.2781,54.2353,56.9083,54.3925,47.1761,12.7891,16.5529,0.212504,0,0,0,0,0,0,0,0,0,0,0,0,0,0,13.2884,9.2251,9.34503,6.80945,17.1282,16.01,20.1546,13.3608,16.7565,0.242041,0,0,0,0,0,0,0,0,0,0,0,0,0,0,7.00074,12.6618,12.5136,12.4184,13.3116,10.7435,9.11032,9.75556,2.91995,0,0,0,0,0,0,0,0,0,0,0,0,0,0,0,18.0315,40.2543,55.0622,63.5526,66.6066,64.2278,56.5538,42.9457,22.3502,1.03318,0,0,0,0,0,0,0,0,0,0,0,0,0,0,8.83557,28.7273,39.7494,50.7502,54.6988,59.3414,51.3909,38.2002,8.28944,0,0,0,0,0,0,0,0,0,0,0,0,0,0,0,1.33231,0.772904,15.7582,14.9609,28.9023,8.64388,14.2727,17.7843,7.04693,0,0,0,0,0,0,0,0,0,0,0,0,0,0,0,0.270982,7.46956,22.7138,19.6027,26.3949,30.6868,12.0287,9.28734,0.9864,0,0,0,0,0,0,0,0,0,0,0,0,0,0,0,2.20136,10.2095,7.1954,17.2911,14.5569,14.1224,18.9662,11.0875,0,0,0,0,0,0,0,0,0,0,0,0,0,0,0,0,4.38904,17.6087,25.0749,33.2034,58.4182,56.7939,50.2067,38.3861,20.2277,1.04864,0,0,0,0,0,0,0,0,0,0,0,0,0,0,7.34804,27.0461,48.8373,46.9109,23.0646,24.0929,25.0184,6.75196,7.44319,0.0559013,0,0,0,0,0,0,0,0,0,0,0,0,0,0,0.338579,3.91567,2.94968,7.67156,14.28,12.594,17.0449,7.67413,9.76052,0.204178,0,0,0,0,0,0]
...